instances/data_GOC/Phase_0_RTS96/scenario_74/powersystem.raw
 0,  100.000000
rts96_spring_wday.raw / File written by to_psse.gms
5 / 19 / 2015
101, ' 101 ',138,2,1,1,1,1.00,0.00,1.1,0.9,1.1,0.9
102, ' 102 ',138,2,1,1,1,1.00,0.00,1.1,0.9,1.1,0.9
103, ' 103 ',138,1,1,1,1,1.00,0.00,1.1,0.9,1.1,0.9
104, ' 104 ',138,1,1,1,1,1.00,0.00,1.1,0.9,1.1,0.9
105, ' 105 ',138,1,1,1,1,1.00,0.00,1.1,0.9,1.1,0.9
106, ' 106 ',138,1,1,1,1,1.00,0.00,1.1,0.9,1.1,0.9
107, ' 107 ',138,2,1,1,1,1.00,0.00,1.1,0.9,1.1,0.9
108, ' 108 ',138,1,1,1,1,1.00,0.00,1.1,0.9,1.1,0.9
109, ' 109 ',138,1,1,1,1,1.00,0.00,1.1,0.9,1.1,0.9
110, ' 110 ',138,1,1,1,1,1.00,0.00,1.1,0.9,1.1,0.9
111, ' 111 ',230,1,1,1,1,1.00,0.00,1.1,0.9,1.1,0.9
112, ' 112 ',230,1,1,1,1,1.00,0.00,1.1,0.9,1.1,0.9
113, ' 113 ',230,3,1,1,1,1.00,0.00,1.1,0.9,1.1,0.9
114, ' 114 ',230,2,1,1,1,1.00,0.00,1.1,0.9,1.1,0.9
115, ' 115 ',230,2,1,1,1,1.00,0.00,1.1,0.9,1.1,0.9
116, ' 116 ',230,2,1,1,1,1.00,0.00,1.1,0.9,1.1,0.9
117, ' 117 ',230,1,1,1,1,1.00,0.00,1.1,0.9,1.1,0.9
118, ' 118 ',230,2,1,1,1,1.00,0.00,1.1,0.9,1.1,0.9
119, ' 119 ',230,1,1,1,1,1.00,0.00,1.1,0.9,1.1,0.9
120, ' 120 ',230,1,1,1,1,1.00,0.00,1.1,0.9,1.1,0.9
121, ' 121 ',230,2,1,1,1,1.00,0.00,1.1,0.9,1.1,0.9
122, ' 122 ',230,2,1,1,1,1.00,0.00,1.1,0.9,1.1,0.9
123, ' 123 ',230,2,1,1,1,1.00,0.00,1.1,0.9,1.1,0.9
124, ' 124 ',230,1,1,1,1,1.00,0.00,1.1,0.9,1.1,0.9
201, ' 201 ',138,2,1,1,1,1.00,0.00,1.1,0.9,1.1,0.9
202, ' 202 ',138,2,1,1,1,1.00,0.00,1.1,0.9,1.1,0.9
203, ' 203 ',138,1,1,1,1,1.00,0.00,1.1,0.9,1.1,0.9
204, ' 204 ',138,1,1,1,1,1.00,0.00,1.1,0.9,1.1,0.9
205, ' 205 ',138,1,1,1,1,1.00,0.00,1.1,0.9,1.1,0.9
206, ' 206 ',138,1,1,1,1,1.00,0.00,1.1,0.9,1.1,0.9
207, ' 207 ',138,2,1,1,1,1.00,0.00,1.1,0.9,1.1,0.9
208, ' 208 ',138,1,1,1,1,1.00,0.00,1.1,0.9,1.1,0.9
209, ' 209 ',138,1,1,1,1,1.00,0.00,1.1,0.9,1.1,0.9
210, ' 210 ',138,1,1,1,1,1.00,0.00,1.1,0.9,1.1,0.9
211, ' 211 ',230,1,1,1,1,1.00,0.00,1.1,0.9,1.1,0.9
212, ' 212 ',230,1,1,1,1,1.00,0.00,1.1,0.9,1.1,0.9
213, ' 213 ',230,2,1,1,1,1.00,0.00,1.1,0.9,1.1,0.9
214, ' 214 ',230,2,1,1,1,1.00,0.00,1.1,0.9,1.1,0.9
215, ' 215 ',230,2,1,1,1,1.00,0.00,1.1,0.9,1.1,0.9
216, ' 216 ',230,2,1,1,1,1.00,0.00,1.1,0.9,1.1,0.9
217, ' 217 ',230,1,1,1,1,1.00,0.00,1.1,0.9,1.1,0.9
218, ' 218 ',230,2,1,1,1,1.00,0.00,1.1,0.9,1.1,0.9
219, ' 219 ',230,1,1,1,1,1.00,0.00,1.1,0.9,1.1,0.9
220, ' 220 ',230,1,1,1,1,1.00,0.00,1.1,0.9,1.1,0.9
221, ' 221 ',230,2,1,1,1,1.00,0.00,1.1,0.9,1.1,0.9
222, ' 222 ',230,2,1,1,1,1.00,0.00,1.1,0.9,1.1,0.9
223, ' 223 ',230,2,1,1,1,1.00,0.00,1.1,0.9,1.1,0.9
224, ' 224 ',230,1,1,1,1,1.00,0.00,1.1,0.9,1.1,0.9
301, ' 301 ',138,2,1,1,1,1.00,0.00,1.1,0.9,1.1,0.9
302, ' 302 ',138,2,1,1,1,1.00,0.00,1.1,0.9,1.1,0.9
303, ' 303 ',138,1,1,1,1,1.00,0.00,1.1,0.9,1.1,0.9
304, ' 304 ',138,1,1,1,1,1.00,0.00,1.1,0.9,1.1,0.9
305, ' 305 ',138,1,1,1,1,1.00,0.00,1.1,0.9,1.1,0.9
306, ' 306 ',138,1,1,1,1,1.00,0.00,1.1,0.9,1.1,0.9
307, ' 307 ',138,2,1,1,1,1.00,0.00,1.1,0.9,1.1,0.9
308, ' 308 ',138,1,1,1,1,1.00,0.00,1.1,0.9,1.1,0.9
309, ' 309 ',138,1,1,1,1,1.00,0.00,1.1,0.9,1.1,0.9
310, ' 310 ',138,1,1,1,1,1.00,0.00,1.1,0.9,1.1,0.9
311, ' 311 ',230,1,1,1,1,1.00,0.00,1.1,0.9,1.1,0.9
312, ' 312 ',230,1,1,1,1,1.00,0.00,1.1,0.9,1.1,0.9
313, ' 313 ',230,2,1,1,1,1.00,0.00,1.1,0.9,1.1,0.9
314, ' 314 ',230,2,1,1,1,1.00,0.00,1.1,0.9,1.1,0.9
315, ' 315 ',230,2,1,1,1,1.00,0.00,1.1,0.9,1.1,0.9
316, ' 316 ',230,2,1,1,1,1.00,0.00,1.1,0.9,1.1,0.9
317, ' 317 ',230,1,1,1,1,1.00,0.00,1.1,0.9,1.1,0.9
318, ' 318 ',230,2,1,1,1,1.00,0.00,1.1,0.9,1.1,0.9
319, ' 319 ',230,1,1,1,1,1.00,0.00,1.1,0.9,1.1,0.9
320, ' 320 ',230,1,1,1,1,1.00,0.00,1.1,0.9,1.1,0.9
321, ' 321 ',230,2,1,1,1,1.00,0.00,1.1,0.9,1.1,0.9
322, ' 322 ',230,2,1,1,1,1.00,0.00,1.1,0.9,1.1,0.9
323, ' 323 ',230,2,1,1,1,1.00,0.00,1.1,0.9,1.1,0.9
324, ' 324 ',230,1,1,1,1,1.00,0.00,1.1,0.9,1.1,0.9
325, ' 325 ',230,1,1,1,1,1.00,0.00,1.1,0.9,1.1,0.9
0 / END OF BUS DATA, BEGIN LOAD DATA
101, '1 ',1,11,11,92.74933699177465,13.687868495220691,0.0,0.0,0.0,0.0,1,1,0
102, '1 ',1,11,12,74.87227198481179,12.77866330661159,0.0,0.0,0.0,0.0,1,1,0
103, '1 ',1,11,11,154.4962509902548,32.137113615610126,0.0,0.0,0.0,0.0,1,1,0
104, '1 ',1,11,11,37.17991355698993,13.136954421740489,0.0,0.0,0.0,0.0,1,1,0
105, '1 ',1,11,11,48.12141959329108,11.940224821090233,0.0,0.0,0.0,0.0,1,1,0
106, '1 ',1,11,12,113.53901960303821,16.235146360115333,0.0,0.0,0.0,0.0,1,1,0
107, '1 ',1,11,12,104.70287478526588,21.48445901071304,0.0,0.0,0.0,0.0,1,1,0
108, '1 ',1,11,12,143.73360343613942,18.467947745853568,0.0,0.0,0.0,0.0,1,1,0
109, '1 ',1,11,13,105.36334512709058,27.99521026545111,0.0,0.0,0.0,0.0,1,1,0
110, '1 ',1,11,13,126.43532730376486,31.741824236562476,0.0,0.0,0.0,0.0,1,1,0
111, '1 ',1,11,13,0.0,0.0,0.0,0.0,0.0,0.0,1,1,0
112, '1 ',1,11,13,0.0,0.0,0.0,0.0,0.0,0.0,1,1,0
113, '1 ',1,12,14,235.8993843877427,32.911615081672,0.0,0.0,0.0,0.0,1,1,0
114, '1 ',1,12,16,134.87986331758853,33.73052730268263,0.0,0.0,0.0,0.0,1,1,0
115, '1 ',1,12,16,227.77834515662116,48.65003224902748,0.0,0.0,0.0,0.0,1,1,0
116, '1 ',1,12,16,68.6620654790243,13.178590776742436,0.0,0.0,0.0,0.0,1,1,0
117, '1 ',1,12,17,0.0,0.0,0.0,0.0,0.0,0.0,1,1,0
118, '1 ',1,12,17,205.43853647031156,56.22091859259625,0.0,0.0,0.0,0.0,1,1,0
119, '1 ',1,12,15,121.84368316391158,27.5412712671834,0.0,0.0,0.0,0.0,1,1,0
120, '1 ',1,12,15,99.16377799054385,19.04787331173839,0.0,0.0,0.0,0.0,1,1,0
121, '1 ',1,12,17,0.0,0.0,0.0,0.0,0.0,0.0,1,1,0
122, '1 ',1,12,17,0.0,0.0,0.0,0.0,0.0,0.0,1,1,0
123, '1 ',1,12,15,0.0,0.0,0.0,0.0,0.0,0.0,1,1,0
124, '1 ',1,12,16,0.0,0.0,0.0,0.0,0.0,0.0,1,1,0
201, '1 ',1,21,21,52.70476872227377,17.71820604167171,0.0,0.0,0.0,0.0,1,1,0
202, '1 ',1,21,22,72.82449345629671,11.452871048723347,0.0,0.0,0.0,0.0,1,1,0
203, '1 ',1,21,21,136.97381106003934,23.759660771715687,0.0,0.0,0.0,0.0,1,1,0
204, '1 ',1,21,21,57.25490046558407,7.526549592967378,0.0,0.0,0.0,0.0,1,1,0
205, '1 ',1,21,21,60.67346775174444,7.617778135696426,0.0,0.0,0.0,0.0,1,1,0
206, '1 ',1,21,22,84.86237573577539,21.442441834257355,0.0,0.0,0.0,0.0,1,1,0
207, '1 ',1,21,22,61.94193083976279,12.53290971579845,0.0,0.0,0.0,0.0,1,1,0
208, '1 ',1,21,22,97.56093501405982,19.332681476930855,0.0,0.0,0.0,0.0,1,1,0
209, '1 ',1,21,23,98.2320851323509,27.678232746159846,0.0,0.0,0.0,0.0,1,1,0
210, '1 ',1,21,23,119.40544903963361,34.53413168885931,0.0,0.0,0.0,0.0,1,1,0
211, '1 ',1,21,23,0.0,0.0,0.0,0.0,0.0,0.0,1,1,0
212, '1 ',1,21,23,0.0,0.0,0.0,0.0,0.0,0.0,1,1,0
213, '1 ',1,22,24,167.97186515367218,27.463584083222596,0.0,0.0,0.0,0.0,1,1,0
214, '1 ',1,22,26,96.80842792267855,30.048252885767774,0.0,0.0,0.0,0.0,1,1,0
215, '1 ',1,22,26,257.12647058370317,47.728058525419236,0.0,0.0,0.0,0.0,1,1,0
216, '1 ',1,22,26,78.08005975001491,11.126943019601514,0.0,0.0,0.0,0.0,1,1,0
217, '1 ',1,22,27,0.0,0.0,0.0,0.0,0.0,0.0,1,1,0
218, '1 ',1,22,27,262.4329047627834,42.5195422685422,0.0,0.0,0.0,0.0,1,1,0
219, '1 ',1,22,25,109.74904786333774,32.384449196255346,0.0,0.0,0.0,0.0,1,1,0
220, '1 ',1,22,25,88.69905658653974,15.852916705202311,0.0,0.0,0.0,0.0,1,1,0
221, '1 ',1,22,27,0.0,0.0,0.0,0.0,0.0,0.0,1,1,0
222, '1 ',1,22,27,0.0,0.0,0.0,0.0,0.0,0.0,1,1,0
223, '1 ',1,22,25,0.0,0.0,0.0,0.0,0.0,0.0,1,1,0
224, '1 ',1,22,26,0.0,0.0,0.0,0.0,0.0,0.0,1,1,0
301, '1 ',1,31,31,68.12982807575817,12.76067178488234,0.0,0.0,0.0,0.0,1,1,0
302, '1 ',1,31,32,49.53492046482246,11.886061306424438,0.0,0.0,0.0,0.0,1,1,0
303, '1 ',1,31,31,112.66322731116972,23.53553048828761,0.0,0.0,0.0,0.0,1,1,0
304, '1 ',1,31,31,40.920628662408795,8.721532931491266,0.0,0.0,0.0,0.0,1,1,0
305, '1 ',1,31,31,55.38327089024918,11.933285123947261,0.0,0.0,0.0,0.0,1,1,0
306, '1 ',1,31,32,66.80895917738714,18.437511222390086,0.0,0.0,0.0,0.0,1,1,0
307, '1 ',1,31,32,101.47162015748326,15.24255611439119,0.0,0.0,0.0,0.0,1,1,0
308, '1 ',1,31,32,89.57611667949404,23.701571404907153,0.0,0.0,0.0,0.0,1,1,0
309, '1 ',1,31,33,141.20392328197136,28.610383962754348,0.0,0.0,0.0,0.0,1,1,0
310, '1 ',1,31,33,173.5467827639482,24.531868395539,0.0,0.0,0.0,0.0,1,1,0
311, '1 ',1,31,33,0.0,0.0,0.0,0.0,0.0,0.0,1,1,0
312, '1 ',1,31,33,0.0,0.0,0.0,0.0,0.0,0.0,1,1,0
313, '1 ',1,32,34,213.03036606287608,30.432712504548853,0.0,0.0,0.0,0.0,1,1,0
314, '1 ',1,32,36,158.63549541825168,20.290493101521022,0.0,0.0,0.0,0.0,1,1,0
315, '1 ',1,32,36,159.2422140019422,33.855501092961426,0.0,0.0,0.0,0.0,1,1,0
316, '1 ',1,32,36,62.988798278253526,14.878884957270694,0.0,0.0,0.0,0.0,1,1,0
317, '1 ',1,32,37,0.0,0.0,0.0,0.0,0.0,0.0,1,1,0
318, '1 ',1,32,37,275.99504209837727,48.750471656166766,0.0,0.0,0.0,0.0,1,1,0
319, '1 ',1,32,35,126.6653785859089,18.995711427948528,0.0,0.0,0.0,0.0,1,1,0
320, '1 ',1,32,35,74.07975716727375,15.0365137290895,0.0,0.0,0.0,0.0,1,1,0
321, '1 ',1,32,37,0.0,0.0,0.0,0.0,0.0,0.0,1,1,0
322, '1 ',1,32,37,0.0,0.0,0.0,0.0,0.0,0.0,1,1,0
323, '1 ',1,32,35,0.0,0.0,0.0,0.0,0.0,0.0,1,1,0
324, '1 ',1,32,36,0.0,0.0,0.0,0.0,0.0,0.0,1,1,0
325, '1 ',1,32,35,0.0,0.0,0.0,0.0,0.0,0.0,1,1,0
0 / END OF LOAD DATA, BEGIN FIXED SHUNT DATA
0 / END OF FIXED SHUNT DATA, BEGIN GENERATOR DATA
101,1,10,0,12.341779322363436,3.346257977653295,1.035,0,24,0,1,0,0,1,1,100,14.875542027875781,9.94502011996694,1,1,0,1
101,2,10,0,12.93649492552504,1.7288159094750881,1.035,0,24,0,1,0,0,1,1,100,14.465370578691363,9.821460282634945,1,1,0,1
101,3,76,14.1,29.38601481774822,-9.442763036116958,1.035,0,89,0,1,0,0,1,1,100,88.94795809276401,13.778482456579795,1,1,0,1
101,4,76,14.1,25.539531976450235,-25.885590018704534,1.035,0,89,0,1,0,0,1,1,100,63.35650229230522,10.516609235852954,1,1,0,1
102,5,10,0,8.858938394580036,-1.3682981980964541,1.035,0,24,0,1,0,0,1,1,100,24.575846788473427,20.351537600271406,1,1,0,1
102,6,10,0,12.183647686615586,4.535510790534318,1.035,0,24,0,1,0,0,1,1,100,21.092739038169384,17.39809255825356,1,1,0,1
102,7,76,7,27.59247159725055,-30.195888852700584,1.035,0,89,0,1,0,0,1,1,100,58.69850791692733,9.44012517914176,1,1,0,1
102,8,76,7,27.453559388872236,-33.972848592558876,1.035,0,89,0,1,0,0,1,1,100,94.7803732091561,28.06566406238825,1,1,0,1
107,9,80,17.2,49.202023532241576,5.720821112394333,1.025,0,118,0,1,0,0,1,1,100,88.6762682814151,68.73634925088695,1,1,0,1
107,10,80,17.2,77.6994315404445,18.413848841562867,1.025,0,118,0,1,0,0,1,1,100,87.28073531296104,28.034322048770264,1,1,0,1
107,11,80,17.2,51.26278794463723,-23.99500416219235,1.025,0,118,0,1,0,0,1,1,100,72.5678320787847,10.902256636181846,1,1,0,1
113,12,95.1,40.7,92.68685512244701,1.5465792082250118,1.02,0,232,0,1,0,0,1,1,100,159.37529213130472,42.735409772305246,1,1,0,1
113,13,95.1,40.7,99.7953478358686,9.546850841492414,1.02,0,232,0,1,0,0,1,1,100,146.36714677321723,34.03148000593528,1,1,0,1
113,14,95.1,40.7,80.63914888352156,7.821161236613989,1.02,0,232,0,1,0,0,1,1,100,251.235658353474,142.6732157281507,1,1,0,1
114,15,0,13.7,238.46073172986507,55.85557634709406,0.98,0,100,0,1,0,0,1,1,100,0.0,0.0,1,1,0,1
115,16,12,0,6.683047341182828,-0.3751473273150623,1.014,0,14,0,1,0,0,1,1,100,12.28156872857362,5.068373600430787,1,1,0,1
115,17,12,0,4.942803737707436,-0.9676480195485055,1.014,0,14,0,1,0,0,1,1,100,9.008990373462439,1.9752798749506484,1,1,0,1
115,18,12,0,5.695730110444128,-0.7792797703295946,1.014,0,14,0,1,0,0,1,1,100,14.284868303127588,6.061504583247007,1,1,0,1
115,19,12,0,6.955463152192532,0.12471586363389964,1.014,0,14,0,1,0,0,1,1,100,8.407328948378563,7.54949597922035,1,1,0,1
115,20,12,0,6.419885675143451,2.144593267701567,1.014,0,14,0,1,0,0,1,1,100,10.65535790026188,3.388148526102306,1,1,0,1
115,21,155,0.05,69.95961945876479,-40.40356566524133,1.014,0,182,0,1,0,0,1,1,100,128.74905964545906,31.453960481833192,1,1,0,1
116,22,155,25.22,79.64238888397813,-29.672665175050497,1.017,0,182,0,1,0,0,1,1,100,157.51356482761912,65.63226527076914,1,1,0,1
118,23,400,137.4,246.23678415082395,-50.557543244212866,1.05,0,471,0,1,0,0,1,1,100,336.3963858038187,5.280229644849896,1,1,0,1
121,24,400,108.2,140.0711621902883,-70.46613960526884,1.05,0,471,0,1,0,0,1,1,100,291.5113757364452,35.24266860934081,1,1,0,1
122,25,50,-4.96,11.38253456056118,-20.944665950443596,1.05,0,53,0,1,0,0,1,1,100,43.25212933588773,11.406626448501791,1,1,0,1
122,26,50,-4.96,17.891388069093228,-10.974559106864035,1.05,0,53,0,1,0,0,1,1,100,55.07571244146675,17.36461397493258,1,1,0,1
122,27,50,-4.96,12.634617268294095,-10.199953010864556,1.05,0,53,0,1,0,0,1,1,100,36.52327280957252,2.9395662084881113,1,1,0,1
122,28,50,-4.96,15.024468663334847,-15.627702705003319,1.05,0,53,0,1,0,0,1,1,100,63.418080676347024,23.54103474877776,1,1,0,1
122,29,50,-4.96,12.478431893140076,-14.858253424894066,1.05,0,53,0,1,0,0,1,1,100,46.91696094349027,3.09050120646134,1,1,0,1
122,30,50,-4.96,14.463024289160966,-11.099794070143254,1.05,0,53,0,1,0,0,1,1,100,58.078669782262295,5.031713980715729,1,1,0,1
123,31,155,31.79,68.09560387581587,-44.276285813655704,1.05,0,182,0,1,0,0,1,1,100,162.49354728125036,52.82329859830206,1,1,0,1
123,32,155,31.79,92.93271486088634,-55.216960214078426,1.05,0,182,0,1,0,0,1,1,100,156.11913479398936,25.521660388645245,1,1,0,1
123,33,350,71.78,112.63965000165626,-48.81509254919365,1.05,0,412,0,1,0,0,1,1,100,357.082908898592,168.07610984379426,1,1,0,1
201,34,10,0,10.029921913519502,-0.7039087540470064,1.035,0,24,0,1,0,0,1,1,100,25.826486778445545,21.425652372408663,1,1,0,1
201,35,10,0,8.795504133217037,-2.663296208716929,1.035,0,24,0,1,0,0,1,1,100,23.893138648942113,20.483483396805823,1,1,0,1
201,36,76,14.1,21.508410505950447,-28.104453170672063,1.035,0,89,0,1,0,0,1,1,100,77.6490382006392,17.65696241941304,1,1,0,1
201,37,76,14.1,38.24175249505788,-1.8871054556220699,1.035,0,89,0,1,0,0,1,1,100,60.067426815629005,9.385743014067423,1,1,0,1
202,38,10,0,7.0794454594142735,-0.690816474147141,1.035,0,24,0,1,0,0,1,1,100,24.58090758882463,21.420200974475595,1,1,0,1
202,39,10,0,8.10168135119602,-1.1594641883857548,1.035,0,24,0,1,0,0,1,1,100,15.448581494390963,11.077639270229264,1,1,0,1
202,40,76,7,23.56372503843158,-26.432962371036414,1.035,0,89,0,1,0,0,1,1,100,64.55287641007453,31.562527749555812,1,1,0,1
202,41,76,7,26.041734685655683,-26.618335390463464,1.035,0,89,0,1,0,0,1,1,100,63.81026720684021,17.88792694013565,1,1,0,1
207,42,80,17.2,55.57863436359912,-8.10104878060519,1.025,0,118,0,1,0,0,1,1,100,101.897704298608,7.03525516204536,1,1,0,1
207,43,80,17.2,70.55816871766001,5.11487000528723,1.025,0,118,0,1,0,0,1,1,100,120.3489675698802,23.197201804723605,1,1,0,1
207,44,80,17.2,56.19969314709306,-2.8004935355857015,1.025,0,118,0,1,0,0,1,1,100,85.87312523741275,28.70784373139032,1,1,0,1
213,45,95.1,40.7,99.0800338499248,16.35549032315612,1.02,0,232,0,1,0,0,1,1,100,244.54431253043003,128.39861438656226,1,1,0,1
213,46,95.1,40.7,85.145223852247,13.537656672298908,1.02,0,232,0,1,0,0,1,1,100,224.18538573840635,116.36790441488849,1,1,0,1
213,47,95.1,40.7,84.67768027633429,6.443779952824116,1.02,0,232,0,1,0,0,1,1,100,201.8755131039303,100.5845946726762,1,1,0,1
214,48,0,13.68,210.91561576351526,-83.52600329788399,0.98,0,100,0,1,0,0,1,1,100,0.0,0.0,1,1,0,1
215,49,12,0,4.939266116078943,-2.7068170513026413,1.014,0,14,0,1,0,0,1,1,100,14.610804783739152,3.6864122891798647,1,1,0,1
215,50,12,0,6.132088632602244,0.07733883401378971,1.014,0,14,0,1,0,0,1,1,100,9.343071919865906,8.78516796372846,1,1,0,1
215,51,12,0,4.776926310639828,-1.0220531006343663,1.014,0,14,0,1,0,0,1,1,100,12.002969223819674,5.183441611044111,1,1,0,1
215,52,12,0,6.319566187262534,1.7301557784900066,1.014,0,14,0,1,0,0,1,1,100,12.279464750178157,3.4146446758881197,1,1,0,1
215,53,12,0,5.9730413435027,1.3892073344439275,1.014,0,14,0,1,0,0,1,1,100,13.241329083032907,4.157579444535077,1,1,0,1
215,54,155,0.048,73.71197403594851,-80.23760509490967,1.014,0,182,0,1,0,0,1,1,100,177.37884630006738,83.79707100233064,1,1,0,1
216,55,155,25.22,67.26182219386101,-72.39169359579682,1.017,0,182,0,1,0,0,1,1,100,114.79459111625327,35.880124554259226,1,1,0,1
218,56,400,137.4,165.887446757406,-110.21991302492097,1.05,0,471,0,1,0,0,1,1,100,316.35741852223873,237.55662979572202,1,1,0,1
221,57,400,108.2,179.59185293875635,-2.5438315584324016,1.05,0,471,0,1,0,0,1,1,100,310.90765595436096,33.8289311202243,1,1,0,1
222,58,50,-4.96,12.340332543849945,-8.12966444417834,1.05,0,53,0,1,0,0,1,1,100,42.563720219768584,4.321358144830844,1,1,0,1
222,59,50,-4.96,15.750261583924294,-15.162950058933346,1.05,0,53,0,1,0,0,1,1,100,54.40967818023636,6.434277109801762,1,1,0,1
222,60,50,-4.96,18.809572035819293,-3.359285671729591,1.05,0,53,0,1,0,0,1,1,100,63.08141883229836,16.099705360829823,1,1,0,1
222,61,50,-4.96,17.597660030424596,-5.112597776483746,1.05,0,53,0,1,0,0,1,1,100,51.01348220370709,33.586197164253164,1,1,0,1
222,62,50,-4.96,13.438810454308985,-15.91863070074469,1.05,0,53,0,1,0,0,1,1,100,57.1265297057107,4.447807485703365,1,1,0,1
222,63,50,-4.96,20.7194160297513,1.5109967143274865,1.05,0,53,0,1,0,0,1,1,100,38.93946582451463,25.22433398212854,1,1,0,1
223,64,155,31.79,89.98208831623197,-20.258311596233384,1.05,0,182,0,1,0,0,1,1,100,112.7616881604772,80.39005545971821,1,1,0,1
223,65,155,31.79,86.60364159941673,-46.27216967148706,1.05,0,182,0,1,0,0,1,1,100,109.72089653695001,33.94574595323064,1,1,0,1
223,66,350,71.78,156.82185189099982,-56.73987829010005,1.05,0,412,0,1,0,0,1,1,100,294.9482260760851,50.84083257103336,1,1,0,1
301,67,10,0,12.513759090099486,3.7230867370963114,1.035,0,24,0,1,0,0,1,1,100,21.987645162269473,17.022764429124074,1,1,0,1
301,68,10,0,10.566124425735325,0.12412220193073153,1.035,0,24,0,1,0,0,1,1,100,16.44458567816764,13.432543489886449,1,1,0,1
301,69,76,14.1,37.35853095212952,-32.70025914674624,1.035,0,89,0,1,0,0,1,1,100,75.81729845572264,32.82527775514872,1,1,0,1
301,70,76,14.1,34.12497932743281,-4.966768178157508,1.035,0,89,0,1,0,0,1,1,100,65.32667871396988,39.19731522294382,1,1,0,1
302,71,10,0,10.654353511985391,0.43786787521094084,1.035,0,24,0,1,0,0,1,1,100,15.895178395323455,11.799768933178857,1,1,0,1
302,72,10,0,10.118984165135771,-1.4457906866446137,1.035,0,24,0,1,0,0,1,1,100,22.88646962493658,19.606363111464308,1,1,0,1
302,73,76,7,35.61303493799642,-25.079859877470874,1.035,0,89,0,1,0,0,1,1,100,88.5418754281476,23.72640821922569,1,1,0,1
302,74,76,7,30.21040610410273,-32.01474781171418,1.035,0,89,0,1,0,0,1,1,100,93.21736274436115,36.844328318983315,1,1,0,1
307,75,80,17.2,70.19051637500525,15.130799425765872,1.025,0,118,0,1,0,0,1,1,100,117.77047574985772,55.45501757529564,1,1,0,1
307,76,80,17.2,43.71046418510377,-26.20925030764193,1.025,0,118,0,1,0,0,1,1,100,120.42372333351523,42.67218897002749,1,1,0,1
307,77,80,17.2,48.76085156388581,-8.435260858386755,1.025,0,118,0,1,0,0,1,1,100,81.38458902947605,17.18171549262479,1,1,0,1
313,78,95.1,40.7,63.69359957799315,-38.26383309066298,1.02,0,232,0,1,0,0,1,1,100,189.46759764049204,69.1910869218479,1,1,0,1
313,79,95.1,40.7,97.39915986731648,9.971793550997972,1.02,0,232,0,1,0,0,1,1,100,205.75535304178482,43.392371498905106,1,1,0,1
313,80,95.1,40.7,57.127233609557145,-24.507861904799945,1.02,0,232,0,1,0,0,1,1,100,226.4734015510883,82.61221786527426,1,1,0,1
314,81,0,13.68,197.1809286158532,-69.45180128095672,0.98,0,100,0,1,0,0,1,1,100,0.0,0.0,1,1,0,1
315,82,12,0,5.3438742983154945,-0.6610724134370685,1.014,0,14,0,1,0,0,1,1,100,13.120549130626024,4.760807598866524,1,1,0,1
315,83,12,0,7.616012337896974,3.0592233306728316,1.014,0,14,0,1,0,0,1,1,100,9.225566517189144,3.2017329476933045,1,1,0,1
315,84,12,0,6.52613049801439,0.8465034342370918,1.014,0,14,0,1,0,0,1,1,100,8.53077959306538,3.398808129210808,1,1,0,1
315,85,12,0,6.730229219980537,1.1839511831291007,1.014,0,14,0,1,0,0,1,1,100,11.8472648749128,3.2032240966334946,1,1,0,1
315,86,12,0,5.383316859975457,0.20725470716133731,1.014,0,14,0,1,0,0,1,1,100,12.413711319677532,0.17872738089412366,1,1,0,1
315,87,155,0.048,69.85105765238404,-52.0312119605951,1.014,0,182,0,1,0,0,1,1,100,139.80814578919671,51.176153505046386,1,1,0,1
316,88,155,25.22,78.46810701489449,-32.41195175983012,1.017,0,182,0,1,0,0,1,1,100,134.29993897443637,32.891140512586574,1,1,0,1
318,89,400,137.4,173.45928941853344,-111.91340021556243,1.05,0,471,0,1,0,0,1,1,100,285.48491051420564,20.31188469845796,1,1,0,1
321,90,400,108.2,140.98769103176892,-157.21141120418906,1.05,0,471,0,1,0,0,1,1,100,451.7018998786807,176.49027624633163,1,1,0,1
322,91,50,-4.96,13.212262868881226,-15.860527854785325,1.05,0,53,0,1,0,0,1,1,100,41.61289277020842,4.107643731404096,1,1,0,1
322,92,50,-4.96,16.84157761633396,-7.3384143996983795,1.05,0,53,0,1,0,0,1,1,100,47.59565794141963,1.4008456491865218,1,1,0,1
322,93,50,-4.96,14.663921205699443,-18.647061166074124,1.05,0,53,0,1,0,0,1,1,100,52.17178096529096,31.83660302205138,1,1,0,1
322,94,50,-4.96,14.837574885040521,-10.191380371619019,1.05,0,53,0,1,0,0,1,1,100,54.69156900886446,36.65117272060744,1,1,0,1
322,95,50,-4.96,11.629616407305,-6.600769918132574,1.05,0,53,0,1,0,0,1,1,100,57.49319968512282,18.001889165025204,1,1,0,1
322,96,50,-4.96,11.321647917479275,-15.557781592383982,1.05,0,53,0,1,0,0,1,1,100,57.060678352136165,13.91923249287089,1,1,0,1
323,97,155,31.79,103.11251017823815,-36.76206862926483,1.05,0,182,0,1,0,0,1,1,100,163.82072180113755,37.26358350871597,1,1,0,1
323,98,155,31.79,59.460228107869625,-72.71418533241376,1.05,0,182,0,1,0,0,1,1,100,176.89223225298338,72.66196595308138,1,1,0,1
323,99,350,71.78,123.8195818173699,-36.054714124184116,1.05,0,412,0,1,0,0,1,1,100,290.79727828968316,121.23359252652153,1,1,0,1
0 / END OF GENERATOR DATA, BEGIN BRANCH DATA
101,102,1,0.003,0.014,0.461,210.0,231.6,240.0,0,0,0,0,1,1,0,1,1
101,103,1,0.055,0.211,0.057,210.0,249.6,264.0,0,0,0,0,1,1,0,1,1
101,105,1,0.022,0.085,0.023,210.0,249.6,264.0,0,0,0,0,1,1,0,1,1
102,104,1,0.033,0.127,0.034,210.0,249.6,264.0,0,0,0,0,1,1,0,1,1
102,106,1,0.05,0.192,0.052,210.0,249.6,264.0,0,0,0,0,1,1,0,1,1
103,109,1,0.031,0.119,0.032,210.0,249.6,264.0,0,0,0,0,1,1,0,1,1
104,109,1,0.027,0.104,0.028,210.0,249.6,264.0,0,0,0,0,1,1,0,1,1
105,110,1,0.023,0.088,0.024,210.0,249.6,264.0,0,0,0,0,1,1,0,1,1
106,110,1,0.014,0.061,2.459,210.0,231.6,240.0,0,0,0,0,1,1,0,1,1
107,108,1,0.016,0.061,0.017,210.0,249.6,264.0,0,0,0,0,1,1,0,1,1
107,203,1,0.042,0.161,0.044,210.0,249.6,264.0,0,0,0,0,1,1,0,1,1
108,109,1,0.043,0.165,0.045,210.0,249.6,264.0,0,0,0,0,1,1,0,1,1
108,110,1,0.043,0.165,0.045,210.0,249.6,264.0,0,0,0,0,1,1,0,1,1
111,113,1,0.006,0.048,0.1,600.0,720.0,750.0,0,0,0,0,1,1,0,1,1
111,114,1,0.005,0.042,0.088,600.0,720.0,750.0,0,0,0,0,1,1,0,1,1
112,113,1,0.006,0.048,0.1,600.0,720.0,750.0,0,0,0,0,1,1,0,1,1
112,123,1,0.012,0.097,0.203,600.0,720.0,750.0,0,0,0,0,1,1,0,1,1
113,123,1,0.011,0.087,0.182,600.0,720.0,750.0,0,0,0,0,1,1,0,1,1
113,215,1,0.01,0.075,0.158,600.0,720.0,750.0,0,0,0,0,1,1,0,1,1
114,116,1,0.005,0.059,0.082,600.0,720.0,750.0,0,0,0,0,1,1,0,1,1
115,116,1,0.002,0.017,0.036,600.0,720.0,750.0,0,0,0,0,1,1,0,1,1
115,121,1,0.006,0.049,0.103,600.0,720.0,750.0,0,0,0,0,1,1,0,1,1
115,121,2,0.006,0.049,0.103,600.0,720.0,750.0,0,0,0,0,1,1,0,1,1
115,124,1,0.007,0.052,0.109,600.0,720.0,750.0,0,0,0,0,1,1,0,1,1
116,117,1,0.003,0.026,0.055,600.0,720.0,750.0,0,0,0,0,1,1,0,1,1
116,119,1,0.003,0.023,0.049,600.0,720.0,750.0,0,0,0,0,1,1,0,1,1
117,118,1,0.002,0.014,0.03,600.0,720.0,750.0,0,0,0,0,1,1,0,1,1
117,122,1,0.014,0.105,0.221,600.0,720.0,750.0,0,0,0,0,1,1,0,1,1
118,121,1,0.003,0.026,0.055,600.0,720.0,750.0,0,0,0,0,1,1,0,1,1
118,121,2,0.003,0.026,0.055,600.0,720.0,750.0,0,0,0,0,1,1,0,1,1
119,120,1,0.005,0.04,0.083,600.0,720.0,750.0,0,0,0,0,1,1,0,1,1
119,120,2,0.005,0.04,0.083,600.0,720.0,750.0,0,0,0,0,1,1,0,1,1
120,123,1,0.003,0.022,0.046,600.0,720.0,750.0,0,0,0,0,1,1,0,1,1
120,123,2,0.003,0.022,0.046,600.0,720.0,750.0,0,0,0,0,1,1,0,1,1
121,122,1,0.009,0.068,0.142,600.0,720.0,750.0,0,0,0,0,1,1,0,1,1
123,217,1,0.01,0.074,0.155,600.0,720.0,750.0,0,0,0,0,1,1,0,1,1
201,202,1,0.003,0.014,0.461,210.0,231.6,240.0,0,0,0,0,1,1,0,1,1
201,203,1,0.055,0.211,0.057,210.0,249.6,264.0,0,0,0,0,1,1,0,1,1
201,205,1,0.022,0.085,0.023,210.0,249.6,264.0,0,0,0,0,1,1,0,1,1
202,204,1,0.033,0.127,0.034,210.0,249.6,264.0,0,0,0,0,1,1,0,1,1
202,206,1,0.05,0.192,0.052,210.0,249.6,264.0,0,0,0,0,1,1,0,1,1
203,209,1,0.031,0.119,0.032,210.0,249.6,264.0,0,0,0,0,1,1,0,1,1
204,209,1,0.027,0.104,0.028,210.0,249.6,264.0,0,0,0,0,1,1,0,1,1
205,210,1,0.023,0.088,0.024,210.0,249.6,264.0,0,0,0,0,1,1,0,1,1
206,210,1,0.014,0.061,2.459,210.0,231.6,240.0,0,0,0,0,1,1,0,1,1
207,208,1,0.016,0.061,0.017,210.0,249.6,264.0,0,0,0,0,1,1,0,1,1
208,209,1,0.043,0.165,0.045,210.0,249.6,264.0,0,0,0,0,1,1,0,1,1
208,210,1,0.043,0.165,0.045,210.0,249.6,264.0,0,0,0,0,1,1,0,1,1
211,213,1,0.006,0.048,0.1,600.0,720.0,750.0,0,0,0,0,1,1,0,1,1
211,214,1,0.005,0.042,0.088,600.0,720.0,750.0,0,0,0,0,1,1,0,1,1
212,213,1,0.006,0.048,0.1,600.0,720.0,750.0,0,0,0,0,1,1,0,1,1
212,223,1,0.012,0.097,0.203,600.0,720.0,750.0,0,0,0,0,1,1,0,1,1
213,223,1,0.011,0.087,0.182,600.0,720.0,750.0,0,0,0,0,1,1,0,1,1
214,216,1,0.005,0.059,0.082,600.0,720.0,750.0,0,0,0,0,1,1,0,1,1
215,216,1,0.002,0.017,0.036,600.0,720.0,750.0,0,0,0,0,1,1,0,1,1
215,221,1,0.006,0.049,0.103,600.0,720.0,750.0,0,0,0,0,1,1,0,1,1
215,221,2,0.006,0.049,0.103,600.0,720.0,750.0,0,0,0,0,1,1,0,1,1
215,224,1,0.007,0.052,0.109,600.0,720.0,750.0,0,0,0,0,1,1,0,1,1
216,217,1,0.003,0.026,0.055,600.0,720.0,750.0,0,0,0,0,1,1,0,1,1
216,219,1,0.003,0.023,0.049,600.0,720.0,750.0,0,0,0,0,1,1,0,1,1
217,218,1,0.002,0.014,0.03,600.0,720.0,750.0,0,0,0,0,1,1,0,1,1
217,222,1,0.014,0.105,0.221,600.0,720.0,750.0,0,0,0,0,1,1,0,1,1
218,221,1,0.003,0.026,0.055,600.0,720.0,750.0,0,0,0,0,1,1,0,1,1
218,221,2,0.003,0.026,0.055,600.0,720.0,750.0,0,0,0,0,1,1,0,1,1
219,220,1,0.005,0.04,0.083,600.0,720.0,750.0,0,0,0,0,1,1,0,1,1
219,220,2,0.005,0.04,0.083,600.0,720.0,750.0,0,0,0,0,1,1,0,1,1
220,223,1,0.003,0.022,0.046,600.0,720.0,750.0,0,0,0,0,1,1,0,1,1
220,223,2,0.003,0.022,0.046,600.0,720.0,750.0,0,0,0,0,1,1,0,1,1
221,222,1,0.009,0.068,0.142,600.0,720.0,750.0,0,0,0,0,1,1,0,1,1
301,302,1,0.003,0.014,0.461,210.0,231.6,240.0,0,0,0,0,1,1,0,1,1
301,303,1,0.055,0.211,0.057,210.0,249.6,264.0,0,0,0,0,1,1,0,1,1
301,305,1,0.022,0.085,0.023,210.0,249.6,264.0,0,0,0,0,1,1,0,1,1
302,304,1,0.033,0.127,0.034,210.0,249.6,264.0,0,0,0,0,1,1,0,1,1
302,306,1,0.05,0.192,0.052,210.0,249.6,264.0,0,0,0,0,1,1,0,1,1
303,309,1,0.031,0.119,0.032,210.0,249.6,264.0,0,0,0,0,1,1,0,1,1
304,309,1,0.027,0.104,0.028,210.0,249.6,264.0,0,0,0,0,1,1,0,1,1
305,310,1,0.023,0.088,0.024,210.0,249.6,264.0,0,0,0,0,1,1,0,1,1
306,310,1,0.014,0.061,2.459,210.0,231.6,240.0,0,0,0,0,1,1,0,1,1
307,308,1,0.016,0.061,0.017,210.0,249.6,264.0,0,0,0,0,1,1,0,1,1
308,309,1,0.043,0.165,0.045,210.0,249.6,264.0,0,0,0,0,1,1,0,1,1
308,310,1,0.043,0.165,0.045,210.0,249.6,264.0,0,0,0,0,1,1,0,1,1
311,313,1,0.006,0.048,0.1,600.0,720.0,750.0,0,0,0,0,1,1,0,1,1
311,314,1,0.005,0.042,0.088,600.0,720.0,750.0,0,0,0,0,1,1,0,1,1
312,313,1,0.006,0.048,0.1,600.0,720.0,750.0,0,0,0,0,1,1,0,1,1
312,323,1,0.012,0.097,0.203,600.0,720.0,750.0,0,0,0,0,1,1,0,1,1
313,323,1,0.011,0.087,0.182,600.0,720.0,750.0,0,0,0,0,1,1,0,1,1
314,316,1,0.005,0.059,0.082,600.0,720.0,750.0,0,0,0,0,1,1,0,1,1
315,316,1,0.002,0.017,0.036,600.0,720.0,750.0,0,0,0,0,1,1,0,1,1
315,321,1,0.006,0.049,0.103,600.0,720.0,750.0,0,0,0,0,1,1,0,1,1
315,321,2,0.006,0.049,0.103,600.0,720.0,750.0,0,0,0,0,1,1,0,1,1
315,324,1,0.007,0.052,0.109,600.0,720.0,750.0,0,0,0,0,1,1,0,1,1
316,317,1,0.003,0.026,0.055,600.0,720.0,750.0,0,0,0,0,1,1,0,1,1
316,319,1,0.003,0.023,0.049,600.0,720.0,750.0,0,0,0,0,1,1,0,1,1
317,318,1,0.002,0.014,0.03,600.0,720.0,750.0,0,0,0,0,1,1,0,1,1
317,322,1,0.014,0.105,0.221,600.0,720.0,750.0,0,0,0,0,1,1,0,1,1
318,223,1,0.013,0.104,0.218,600.0,720.0,750.0,0,0,0,0,1,1,0,1,1
318,321,1,0.003,0.026,0.055,600.0,720.0,750.0,0,0,0,0,1,1,0,1,1
318,321,2,0.003,0.026,0.055,600.0,720.0,750.0,0,0,0,0,1,1,0,1,1
319,320,1,0.005,0.04,0.083,600.0,720.0,750.0,0,0,0,0,1,1,0,1,1
319,320,2,0.005,0.04,0.083,600.0,720.0,750.0,0,0,0,0,1,1,0,1,1
320,323,1,0.003,0.022,0.046,600.0,720.0,750.0,0,0,0,0,1,1,0,1,1
320,323,2,0.003,0.022,0.046,600.0,720.0,750.0,0,0,0,0,1,1,0,1,1
321,322,1,0.009,0.068,0.142,600.0,720.0,750.0,0,0,0,0,1,1,0,1,1
323,325,1,0,0.009,0,866.4,1071.6,1071.6,0,0,0,0,1,1,0,1,1
325,121,1,0.012,0.097,0.203,600.0,720.0,750.0,0,0,0,0,1,1,0,1,1
0 / END OF BRANCH DATA, BEGIN TRANSFORMER DATA
  103 ,  124 , 0,  1 , 1, 1, 1, 0, 0, 2, '            ',  1 , 1, 1
   0.002000 ,  0.084000 ,  100.000000
   1.015000 , 0,  0.000000 ,  400.000000 ,  510.000000 ,  600.000000 , 0, 0,  1.10 ,  0.90 ,  1.10 ,  0.90 , 33, 0, 0, 0
   1.000000, 0
  109 ,  111 , 0,  1 , 1, 1, 1, 0, 0, 2, '            ',  1 , 1, 1
   0.002000 ,  0.084000 ,  100.000000
   1.030000 , 0,  0.000000 ,  400.000000 ,  510.000000 ,  600.000000 , 0, 0,  1.10 ,  0.90 ,  1.10 ,  0.90 , 33, 0, 0, 0
   1.000000, 0
  109 ,  112 , 0,  1 , 1, 1, 1, 0, 0, 2, '            ',  1 , 1, 1
   0.002000 ,  0.084000 ,  100.000000
   1.030000 , 0,  0.000000 ,  400.000000 ,  510.000000 ,  600.000000 , 0, 0,  1.10 ,  0.90 ,  1.10 ,  0.90 , 33, 0, 0, 0
   1.000000, 0
  110 ,  111 , 0,  1 , 1, 1, 1, 0, 0, 2, '            ',  1 , 1, 1
   0.002000 ,  0.084000 ,  100.000000
   1.015000 , 0,  0.000000 ,  400.000000 ,  510.000000 ,  600.000000 , 0, 0,  1.10 ,  0.90 ,  1.10 ,  0.90 , 33, 0, 0, 0
   1.000000, 0
  110 ,  112 , 0,  1 , 1, 1, 1, 0, 0, 2, '            ',  1 , 1, 1
   0.002000 ,  0.084000 ,  100.000000
   1.015000 , 0,  0.000000 ,  400.000000 ,  510.000000 ,  600.000000 , 0, 0,  1.10 ,  0.90 ,  1.10 ,  0.90 , 33, 0, 0, 0
   1.000000, 0
  203 ,  224 , 0,  1 , 1, 1, 1, 0, 0, 2, '            ',  1 , 1, 1
   0.002000 ,  0.084000 ,  100.000000
   1.015000 , 0,  0.000000 ,  400.000000 ,  510.000000 ,  600.000000 , 0, 0,  1.10 ,  0.90 ,  1.10 ,  0.90 , 33, 0, 0, 0
   1.000000, 0
  209 ,  211 , 0,  1 , 1, 1, 1, 0, 0, 2, '            ',  1 , 1, 1
   0.002000 ,  0.084000 ,  100.000000
   1.030000 , 0,  0.000000 ,  400.000000 ,  510.000000 ,  600.000000 , 0, 0,  1.10 ,  0.90 ,  1.10 ,  0.90 , 33, 0, 0, 0
   1.000000, 0
  209 ,  212 , 0,  1 , 1, 1, 1, 0, 0, 2, '            ',  1 , 1, 1
   0.002000 ,  0.084000 ,  100.000000
   1.030000 , 0,  0.000000 ,  400.000000 ,  510.000000 ,  600.000000 , 0, 0,  1.10 ,  0.90 ,  1.10 ,  0.90 , 33, 0, 0, 0
   1.000000, 0
  210 ,  211 , 0,  1 , 1, 1, 1, 0, 0, 2, '            ',  1 , 1, 1
   0.002000 ,  0.084000 ,  100.000000
   1.015000 , 0,  0.000000 ,  400.000000 ,  510.000000 ,  600.000000 , 0, 0,  1.10 ,  0.90 ,  1.10 ,  0.90 , 33, 0, 0, 0
   1.000000, 0
  210 ,  212 , 0,  1 , 1, 1, 1, 0, 0, 2, '            ',  1 , 1, 1
   0.002000 ,  0.084000 ,  100.000000
   1.015000 , 0,  0.000000 ,  400.000000 ,  510.000000 ,  600.000000 , 0, 0,  1.10 ,  0.90 ,  1.10 ,  0.90 , 33, 0, 0, 0
   1.000000, 0
  303 ,  324 , 0,  1 , 1, 1, 1, 0, 0, 2, '            ',  1 , 1, 1
   0.002000 ,  0.084000 ,  100.000000
   1.015000 , 0,  0.000000 ,  400.000000 ,  510.000000 ,  600.000000 , 0, 0,  1.10 ,  0.90 ,  1.10 ,  0.90 , 33, 0, 0, 0
   1.000000, 0
  309 ,  311 , 0,  1 , 1, 1, 1, 0, 0, 2, '            ',  1 , 1, 1
   0.002000 ,  0.084000 ,  100.000000
   1.030000 , 0,  0.000000 ,  400.000000 ,  510.000000 ,  600.000000 , 0, 0,  1.10 ,  0.90 ,  1.10 ,  0.90 , 33, 0, 0, 0
   1.000000, 0
  309 ,  312 , 0,  1 , 1, 1, 1, 0, 0, 2, '            ',  1 , 1, 1
   0.002000 ,  0.084000 ,  100.000000
   1.030000 , 0,  0.000000 ,  400.000000 ,  510.000000 ,  600.000000 , 0, 0,  1.10 ,  0.90 ,  1.10 ,  0.90 , 33, 0, 0, 0
   1.000000, 0
  310 ,  311 , 0,  1 , 1, 1, 1, 0, 0, 2, '            ',  1 , 1, 1
   0.002000 ,  0.084000 ,  100.000000
   1.015000 , 0,  0.000000 ,  400.000000 ,  510.000000 ,  600.000000 , 0, 0,  1.10 ,  0.90 ,  1.10 ,  0.90 , 33, 0, 0, 0
   1.000000, 0
  310 ,  312 , 0,  1 , 1, 1, 1, 0, 0, 2, '            ',  1 , 1, 1
   0.002000 ,  0.084000 ,  100.000000
   1.015000 , 0,  0.000000 ,  400.000000 ,  510.000000 ,  600.000000 , 0, 0,  1.10 ,  0.90 ,  1.10 ,  0.90 , 33, 0, 0, 0
   1.000000, 0
0 / END OF TRANSFORMER DATA, BEGIN AREA DATA
0 / END OF AREA DATA, BEGIN TWO-TERMINAL DC DATA
0 / END OF TWO-TERMINAL DC DATA, BEGIN VSC DC LINE DATA
0 / END OF VSC DC LINE DATA, BEGIN SWITCHED SHUNT DATA
0 / END OF SWITCHED SHUNT DATA, BEGIN IMPEDANCE CORRECTION DATA
0 / END OF IMPEDANCE CORRECTION DATA, BEGIN MULTI-TERMINAL DC DATA
0 / END OF MULTI-TERMINAL DC DATA, BEGIN MULTI-SECTION LINE DATA
0 / END OF MULTI-SECTION LINE DATA, BEGIN ZONE DATA
0 / END OF ZONE DATA, BEGIN INTER-AREA TRANSFER DATA
0 / END OF INTER-AREA TRANSFER DATA, BEGIN OWNER DATA
0 / END OF OWNER DATA, BEGIN FACTS CONTROL DEVICE DATA
0 / END OF FACTS CONTROL DEVICE DATA
0 / END OF SWITCHED SHUNT DATA, BEGIN GNE DATA
0 / END OF GNE DATA, BEGIN INDUCTION MACHINE DATA
0 / END OF INDUCTION MACHINE DATA
Q 
